!!>>>>>>>>>>>>>>>>>>>>>>>>>>>>>>>>>>>>>>>>>>>>>>>>>>>>>>>>>>>>>>>>>>>>>>
!! NEMO/TOP1 :   - tracer run information                (namtrc_run)
!!               - tracer definition                     (namtrc    )
!!               - tracer data initialisation            (namtrc_dta)
!!               - tracer advection                      (namtrc_adv)
!!               - tracer lateral diffusion              (namtrc_ldf)
!!               - tracer vertical physics               (namtrc_zdf)
!!               - tracer newtonian damping              (namtrc_dmp)
!!               - dynamical tracer trends               (namtrc_trd)
!!               - tracer output diagonstics             (namtrc_dia)
!>>>>>>>>>>>>>>>>>>>>>>>>>>>>>>>>>>>>>>>>>>>>>>>>>>>>>>>>>>>>>>>>>>>>>>>
!-----------------------------------------------------------------------
&namtrc_run     !   run information
!-----------------------------------------------------------------------
   nn_dttrc      =  1        !  time step frequency for passive sn_tracers
   ln_top_euler  = .false.    !  use Euler time-stepping for TOP
   ln_rsttr      = .true. ! start from a restart file (T) or not (F)
   nn_rsttr      = 0       ! restart control = 0 initial time step is not compared to the restart file value
                           !                  = 1 do not use the value in the restart file
                           !                  = 2 calendar parameters read in the restart file
   cn_trcrst_in  = "restart_trc" !"restart_trc"   !  suffix of pass. sn_tracer restart name (input)
   cn_trcrst_out = "restart_trc"   !  suffix of pass. sn_tracer restart name (output)
   cn_trcrst_indir   = "./"   !  directory of ocean restart name (input)
   cn_trcrst_outdir  = "./RESTART"   !  directory of ocean restart name (output)
/
!-----------------------------------------------------------------------
&namtrc     !   tracers definition
!-----------------------------------------------------------------------
  ln_fabm     = .true. 
  jp_bgc      =   52          !  Number of passive tracers of the BGC model
!                    sname       lname                                                 unit ,  init    ,  sbc     ,   cbc   ,  obc   ,  save
   sn_tracer(1)   = 'light_ADY' , 'light gelbstoff absorption',                        ' '  , .true.  ,  .false. , .false. , .false. , .false.
   sn_tracer(2)   = 'N1_p     ' , 'phosphate  ',                                       ' '  , .true.  ,  .false. , .false. , .true. , .false.
   sn_tracer(3)   = 'N3_n     ' , 'oxidised nitrogen  ',                               ' '  , .true.  ,  .false. , .false. , .true. , .false.
   sn_tracer(4)   = 'N4_n     ' , 'ammonium nitrogen',                                 ' '  , .true.  ,  .false. , .false. , .false. , .false.
   sn_tracer(5)   = 'N5_s     ' , 'silicate  ',                                        ' '  , .true.  ,  .false. , .false. , .true. , .false.
   sn_tracer(6)   = 'O2_o     ' , 'oxygen     ',                                       ' '  , .true.  ,  .false. , .false. , .false. , .false.
   sn_tracer(7)   = 'O3_c     ' , 'dissolved inorganic carbon  ',                      ' '  , .true.  ,  .false. , .false. , .true. , .false.
   sn_tracer(8)   = 'O3_bioalk    ' , 'total alkalinity  '      ,                          ' '  , .false.  ,  .false. , .false. , .true. , .false.
   sn_tracer(9)  = 'R1_c     ' , 'labile dissolved organic matter carbon '     ,      ' '  , .true.  ,  .false. , .false. , .false. , .false.
   sn_tracer(10)  = 'R1_n     ' , 'labile dissolved organic matter nitrogen '   ,      ' '  , .true.  ,  .false. , .false. , .false. , .false.
   sn_tracer(11)  = 'R1_p     ' , 'labile dissolved organic matter phosphorus ' ,      ' '  , .true.  ,  .false. , .false. , .false. , .false.
   sn_tracer(12)  = 'R2_c     ' , 'semi-labile dissolved organic matter carbon ',      ' '  , .true.  ,  .false. , .false. , .false. , .false.
   sn_tracer(13)  = 'R3_c     ' , 'semi-refractory dissolved organic matter carbon ',  ' '  , .true.  ,  .false. , .false. , .false. , .false.
   sn_tracer(14)   = 'R4_c     ' , 'small particulate carbon  ',                       ' '  , .true.  ,  .false. , .false. , .true. , .false.
   sn_tracer(15)   = 'R4_n     ' , 'small particulate nitrogen  ',                     ' '  , .true.  ,  .false. , .false. , .true. , .false.
   sn_tracer(16)   = 'R4_p     ' , 'small particulate phosphorus  ',                   ' '  , .true.  ,  .false. , .false. , .true. , .false.
   sn_tracer(17)   = 'R6_c     ' , 'medium particulate carbon  ',                      ' '  , .true.  ,  .false. , .false. , .true. , .false.
   sn_tracer(18)   = 'R6_n     ' , 'medium particulate nitrogen  ',                    ' '  , .true.  ,  .false. , .false. , .true. , .false.
   sn_tracer(19)   = 'R6_p     ' , 'medium particulate phosphorus  ',                  ' '  , .true.  ,  .false. , .false. , .true. , .false.
   sn_tracer(20)   = 'R6_s     ' , 'medium particulate silicate  ',                    ' '  , .true.  ,  .false. , .false. , .true. , .false.
   sn_tracer(21)   = 'R8_c     ' , 'large particulate carbon  ',                       ' '  , .true.  ,  .false. , .false. , .true. , .false.
   sn_tracer(22)   = 'R8_n     ' , 'large particulate nitrogen  ',                     ' '  , .true.  ,  .false. , .false. , .true. , .false.
   sn_tracer(23)   = 'R8_p     ' , 'large particulate phosphorus  ',                   ' '  , .true.  ,  .false. , .false. , .true. , .false.
   sn_tracer(24)   = 'R8_s     ' , 'large particulate silicate  ',                     ' '  , .true.  ,  .false. , .false. , .true. , .false.
   sn_tracer(25)   = 'B1_c     ' , 'bacteria carbon          '      ,                   ' '  , .true.  ,  .false. , .false. , .false. , .false.
   sn_tracer(26)  = 'B1_n     ' , 'bacteria nitrogen        '      ,                   ' '  , .true.  ,  .false. , .false. , .false. , .false.
   sn_tracer(27)  = 'B1_p     ' , 'bacteria phosphorus      '      ,                   ' '  , .true.  ,  .false. , .false. , .false. , .false.
   sn_tracer(28)  = 'P1_c     ' , 'diatom carbon  '                ,                   ' '  , .true.  ,  .false. , .false. , .true. , .false.
   sn_tracer(29)  = 'P1_n     ' , 'diatom nitrogen  '              ,                   ' '  , .true.  ,  .false. , .false. , .true. , .false.
   sn_tracer(30)  = 'P1_p     ' , 'diatom phosphorus  '            ,                   ' '  , .true.  ,  .false. , .false. , .true. , .false.
   sn_tracer(31)  = 'P1_Chl   ' , 'diatom chlorophyll  '           ,                   ' '  , .true.  ,  .false. , .false. , .true. , .false.
   sn_tracer(32)  = 'P1_s     ' , 'diatom silicate  '              ,                   ' '  , .true.  ,  .false. , .false. , .true. , .false.
   sn_tracer(33)  = 'P2_c     ' , 'nanophytoplankton carbon  '     ,                   ' '  , .true.  ,  .false. , .false. , .true. , .false.
   sn_tracer(34)  = 'P2_n     ' , 'nanophytoplankton nitrogen  '   ,                   ' '  , .true.  ,  .false. , .false. , .true. , .false.
   sn_tracer(35)  = 'P2_p     ' , 'nanophytoplankton phosphorus  ' ,                   ' '  , .true.  ,  .false. , .false. , .true. , .false.
   sn_tracer(36)  = 'P2_Chl   ' , 'nanophytoplankton chlorophyll  ',                   ' '  , .true.  ,  .false. , .false. , .true. , .false.
   sn_tracer(37)  = 'P3_c     ' , 'picophytoplankton carbon  '     ,                   ' '  , .true.  ,  .false. , .false. , .true. , .false.
   sn_tracer(38)  = 'P3_n     ' , 'picophytoplankton nitrogen  '   ,                   ' '  , .true.  ,  .false. , .false. , .true. , .false.
   sn_tracer(39)  = 'P3_p     ' , 'picophytoplankton phosphorus  ' ,                   ' '  , .true.  ,  .false. , .false. , .true. , .false.
   sn_tracer(40)  = 'P3_Chl   ' , 'picophytoplankton chlorophyll  ',                   ' '  , .true.  ,  .false. , .false. , .true. , .false.
   sn_tracer(41)  = 'P4_c     ' , 'microphytoplankton carbon  '    ,                   ' '  , .true.  ,  .false. , .false. , .true. , .false.
   sn_tracer(42)  = 'P4_n     ' , 'microphytoplankton nitrogen  '  ,                   ' '  , .true.  ,  .false. , .false. , .true. , .false.
   sn_tracer(43)  = 'P4_p     ' , 'microphytoplankton phosphorus  ',                   ' '  , .true.  ,  .false. , .false. , .true. , .false.
   sn_tracer(44)  = 'P4_Chl   ' , 'microphytoplankton chlorophyll ',                   ' '  , .true.  ,  .false. , .false. , .true. , .false.
   sn_tracer(45)  = 'Z4_c     ' , 'mesozooplankton carbon         ',                   ' '  , .true.  ,  .false. , .false. , .false. , .false.
   sn_tracer(46)  = 'Z5_c     ' , 'microzooplankton carbon        ',                   ' '  , .true.  ,  .false. , .false. , .false. , .false.
   sn_tracer(47)  = 'Z5_n     ' , 'microzooplankton nitrogen      ',                   ' '  , .true.  ,  .false. , .false. , .false. , .false.
   sn_tracer(48)  = 'Z5_p     ' , 'microzooplankton phosphorus    ',                   ' '  , .true.  ,  .false. , .false. , .false. , .false.
   sn_tracer(49)  = 'Z6_c     ' , 'nanoflagellates carbon         ',                   ' '  , .true.  ,  .false. , .false. , .false. , .false.
   sn_tracer(50)  = 'Z6_n     ' , 'nanoflagellates nitrogen       ',                   ' '  , .true.  ,  .false. , .false. , .false. , .false.
   sn_tracer(51)  = 'Z6_p     ' , 'nanoflagellates phosphorus     ',                   ' '  , .true.  ,  .false. , .false. , .false. , .false.
   sn_tracer(52)   = 'L2_c     ' , 'Calcite  ',                      ' '  , .true.  ,  .false. , .false. , .true. , .false.
   ln_trcdta     =  .false.  !  Initialisation from data input file (T) or not (F)
   ln_trcdmp     =  .false.  !  add a damping termn (T) or not (F)
   ln_trcdmp_clo =  .false.  !  damping term (T) or not (F) on closed seas
/
!-----------------------------------------------------------------------
&namtrc_dta      !    Initialisation from data input file
!-----------------------------------------------------------------------
!
   cn_dir        =  './'      !  root directory for the location of the data files
/
!-----------------------------------------------------------------------
&namtrc_adv    !   advection scheme for passive tracer
!-----------------------------------------------------------------------
   ln_trcadv_fct =  .true.   !  FCT scheme
      nn_fct_h   =  2               !  =2/4, horizontal 2nd / 4th order
      nn_fct_v   =  2               !  =2/4, vertical   2nd / COMPACT 4th order
/
!-----------------------------------------------------------------------
&namtrc_ldf    !   lateral diffusion scheme for passive tracer
!-----------------------------------------------------------------------
   ln_trcldf_tra    =  .false. 
   ln_trcldf_OFF    =  .true. 
/
!-----------------------------------------------------------------------
&namtrc_zdf        !   vertical physics
!-----------------------------------------------------------------------
   ln_trczdf_exp   =  .false.  !  split explicit (T) or implicit (F) time stepping
   nn_trczdf_exp   =   3       !  number of sub-timestep for ln_trczdfexp=T
/
!-----------------------------------------------------------------------
&namtrc_rad        !  treatment of negative concentrations
!-----------------------------------------------------------------------
   ln_trcrad   =  .true.  !  artificially correct negative concentrations (T) or not (F)  ! slwa .true.
/
!-----------------------------------------------------------------------
&namtrc_dmp    !   passive tracer newtonian damping
!-----------------------------------------------------------------------
   nn_zdmp_tr  =    1      !  vertical   shape =0    damping throughout the water column
                           !                   =1 no damping in the mixing layer (kz  criteria)
                           !                   =2 no damping in the mixed  layer (rho crieria)
   cn_resto_tr  = 'resto_tr.nc'    !  create a damping.coeff NetCDF file (=1) or not (=0)
/
!-----------------------------------------------------------------------
&namtrc_trd       !   diagnostics on tracer trends        ('key_trdtrc')
!                          or mixed-layer trends          ('key_trdmld_trc')
!----------------------------------------------------------------------
   nn_trd_trc  =   1     !  time step frequency and tracers trends
   nn_ctls_trc =   50        !  control surface type in mixed-layer trends (0,1 or n<jpk)
   rn_ucf_trc  =   1        !  unit conversion factor (=1 -> /seconds ; =86400. -> /day)
   ln_trdmxl_trc_restart = .false.  !  restart for ML diagnostics
   ln_trdmxl_trc_instant = .false.  !  flag to diagnose trends of instantantaneous or mean ML T/S
/
!-----------------------------------------------------------------------
&namtrc_dia       !   parameters for passive tracer additional diagnostics
!----------------------------------------------------------------------
   ln_diatrc     =  .false.   !  save additional diag. (T) or not (F)
   ln_diabio     =  .false.   !  output biological trends
   nn_writedia   =  105120 ! 1440     !  time step frequency for diagnostics
   nn_writebio   =  105120 ! 10     !: frequency of biological outputs
/
!----------------------------------------------------------------------
&namtrc_bc       !   data for boundary conditions
!-----------------------------------------------------------------------
!
   cn_dir_sbc        =  './'      !  root directory for the location of SURFACE data files
   cn_dir_cbc        =  './'      !  root directory for the location of COASTAL data files
   cn_dir_obc        =  '../../INPUTS/LBC/BGC/'      !  root directory for the location of OPEN data files
!          !  file name  ! frequency (hours) ! variable  ! time interp. !  clim  ! 'yearly'/ ! weights  ! rotation ! land/sea mask !
!          !             !  (if <0  months)  !   name    !   (logical)  !  (T/F) ! 'monthly' ! filename ! pairing  ! filename      !
   sn_trcobc_dta(2) = 'amm7bdy_trc' ,    -1     , 'phosphate' ,   .true.     , .true. , 'yearly'  , ''       , ''       ,   ''
   sn_trcobc_dta(3) = 'amm7bdy_trc' ,    -1     , 'nitrate' ,   .true.     , .true. , 'yearly'  , ''       , ''       ,   ''
   sn_trcobc_dta(5) = 'amm7bdy_trc' ,    -1     , 'silicate' ,   .true.     , .true. , 'yearly'  , ''       , ''       ,   ''
!   sn_trcobc_dta(6) = 'amm7bdy_trc' ,    -1     , 'oxygen' , .true.    , .true. , 'yearly'       , ''       , ''       ,   ''
   sn_trcobc_dta(7) = 'amm7bdy_trc' ,    -1     , 'DIC' ,   .true.     , .true. , 'yearly'  , ''       , ''       ,   ''
   sn_trcobc_dta(8) = 'amm7bdy_trc' ,    -1     , 'bioalk' ,   .true.     , .true. , 'yearly'  , ''       , ''       ,   ''
   sn_trcobc_dta(28) = 'amm7bdy_trc' ,    -1     , 'diatoms_c' ,   .true.     , .true. , 'yearly'  , ''       , ''       ,   ''
   sn_trcobc_dta(29) = 'amm7bdy_trc' ,    -1     , 'diatoms_n' ,   .true.     , .true. , 'yearly'  , ''       , ''       ,   ''
   sn_trcobc_dta(30) = 'amm7bdy_trc' ,    -1     , 'diatoms_p' ,   .true.     , .true. , 'yearly'  , ''       , ''       ,   ''
   sn_trcobc_dta(31) = 'amm7bdy_trc' ,    -1     , 'diatoms_Chl' ,   .true.     , .true. , 'yearly'  , ''       , ''       ,   ''
   sn_trcobc_dta(32) = 'amm7bdy_trc' ,    -1     , 'diatoms_s' ,   .true.     , .true. , 'yearly'  , ''       , ''       ,   ''
   sn_trcobc_dta(52) = 'amm7bdy_trc' ,    -1     , 'calcite_c' ,   .true.     , .true. , 'yearly'  , ''       , ''       ,   ''
   sn_trcobc_dta(33) = 'amm7bdy_trc' ,    -1     , 'nanophytoplankton_c' ,   .true.     , .true. , 'yearly'  , ''       , ''       ,   ''
   sn_trcobc_dta(34) = 'amm7bdy_trc' ,    -1     , 'nanophytoplankton_n' ,   .true.     , .true. , 'yearly'  , ''       , ''       ,   ''
   sn_trcobc_dta(35) = 'amm7bdy_trc' ,    -1     , 'nanophytoplankton_p' ,   .true.     , .true. , 'yearly'  , ''       , ''       ,   ''
   sn_trcobc_dta(36) = 'amm7bdy_trc' ,    -1     , 'nanophytoplankton_Chl' ,   .true.     , .true. , 'yearly'  , ''       , ''       ,   ''
   sn_trcobc_dta(37) = 'amm7bdy_trc' ,    -1     , 'picophytoplankton_c' ,   .true.     , .true. , 'yearly'  , ''       , ''       ,   ''
   sn_trcobc_dta(38) = 'amm7bdy_trc' ,    -1     , 'picophytoplankton_n' ,   .true.     , .true. , 'yearly'  , ''       , ''       ,   ''
   sn_trcobc_dta(39) = 'amm7bdy_trc' ,    -1     , 'picophytoplankton_p' ,   .true.     , .true. , 'yearly'  , ''       , ''       ,   ''
   sn_trcobc_dta(40) = 'amm7bdy_trc' ,    -1     , 'picophytoplankton_Chl' ,   .true.     , .true. , 'yearly'  , ''       , ''       ,   ''
   sn_trcobc_dta(41) = 'amm7bdy_trc' ,    -1     , 'microphytoplankton_c' ,   .true.     , .true. , 'yearly'  , ''       , ''       ,   ''
   sn_trcobc_dta(42) = 'amm7bdy_trc' ,    -1     , 'microphytoplankton_n' ,   .true.     , .true. , 'yearly'  , ''       , ''       ,   ''
   sn_trcobc_dta(43) = 'amm7bdy_trc' ,    -1     , 'microphytoplankton_p' ,   .true.     , .true. , 'yearly'  , ''       , ''       ,   ''
   sn_trcobc_dta(44) = 'amm7bdy_trc' ,    -1     , 'microphytoplankton_Chl' ,   .true.     , .true. , 'yearly'  , ''       , ''       ,   ''
   sn_trcobc_dta(14) = 'amm7bdy_trc' ,    -1     , 'small_poc' ,   .true.     , .true. , 'yearly'  , ''       , ''       ,   ''
   sn_trcobc_dta(15) = 'amm7bdy_trc' ,    -1     , 'small_pon' ,   .true.     , .true. , 'yearly'  , ''       , ''       ,   ''
   sn_trcobc_dta(16) = 'amm7bdy_trc' ,    -1     , 'small_pop' ,   .true.     , .true. , 'yearly'  , ''       , ''       ,   ''
   sn_trcobc_dta(17) = 'amm7bdy_trc' ,    -1     , 'medium_poc' ,   .true.     , .true. , 'yearly'  , ''       , ''       ,   ''
   sn_trcobc_dta(18) = 'amm7bdy_trc' ,    -1     , 'medium_pon' ,   .true.     , .true. , 'yearly'  , ''       , ''       ,   ''
   sn_trcobc_dta(19) = 'amm7bdy_trc' ,    -1     , 'medium_pop' ,   .true.     , .true. , 'yearly'  , ''       , ''       ,   ''
   sn_trcobc_dta(20) = 'amm7bdy_trc' ,    -1     , 'medium_pos' ,   .true.     , .true. , 'yearly'  , ''       , ''       ,   ''
   sn_trcobc_dta(21) = 'amm7bdy_trc' ,    -1     , 'large_poc' ,   .true.     , .true. , 'yearly'  , ''       , ''       ,   ''
   sn_trcobc_dta(22) = 'amm7bdy_trc' ,    -1     , 'large_pon' ,   .true.     , .true. , 'yearly'  , ''       , ''       ,   ''
   sn_trcobc_dta(23) = 'amm7bdy_trc' ,    -1     , 'large_pop' ,   .true.     , .true. , 'yearly'  , ''       , ''       ,   ''
   sn_trcobc_dta(24) = 'amm7bdy_trc' ,    -1     , 'large_pos' ,   .true.     , .true. , 'yearly'  , ''       , ''       ,   ''
   rn_trofac(2) = 1
   rn_trofac(3) = 1
   rn_trofac(5) = 1
!   rn_trofac(6) = 1
   rn_trofac(7) = 1
   rn_trofac(8) = 1
   rn_trofac(28) = 1
   rn_trofac(29) = 1
   rn_trofac(30) = 1
   rn_trofac(31) = 1
   rn_trofac(32) = 1
   rn_trofac(52) = 1
   rn_trofac(33) = 1
   rn_trofac(34) = 1
   rn_trofac(35) = 1
   rn_trofac(36) = 1
   rn_trofac(37) = 1
   rn_trofac(38) = 1
   rn_trofac(39) = 1
   rn_trofac(40) = 1
   rn_trofac(41) = 1
   rn_trofac(42) = 1
   rn_trofac(43) = 1
   rn_trofac(44) = 1
   rn_trofac(14) = 1
   rn_trofac(15) = 1
   rn_trofac(16) = 1
   rn_trofac(17) = 1
   rn_trofac(18) = 1
   rn_trofac(19) = 1
   rn_trofac(20) = 1
   rn_trofac(21) = 1
   rn_trofac(22) = 1
   rn_trofac(23) = 1
   rn_trofac(24) = 1
/
!----------------------------------------------------------------------
&namtrc_bc       !   data for boundary conditions
!-----------------------------------------------------------------------
!          !  file name  ! frequency (hours) ! variable  ! time interp. !  clim  ! 'yearly'/ ! weights  ! rotation ! land/sea mask !
!          !             !  (if <0  months)  !   name    !   (logical)  !  (T/F) ! 'monthly' ! filename ! pairing  ! filename      !
   sn_trcobc_dta(2) = 'amm7skagbdy_trc' ,    -1 , 'phosphate'     ,   .true.     , .true. , 'yearly'  , ''       , ''       ,   ''
   sn_trcobc_dta(3) = 'amm7skagbdy_trc' ,    -1 , 'nitrate'     ,   .true.     , .true. , 'yearly'  , ''       , ''       ,   ''
   sn_trcobc_dta(5) = 'amm7skagbdy_trc' ,    -1 , 'silicate'     ,   .true.     , .true. , 'yearly'  , ''       , ''       ,   ''
!   sn_trcobc_dta(6) = 'amm7skagbdy_trc' ,    -1 , 'oxygen'       ,   .true.     , .true. , 'yearly'  , ''       , ''       ,   ''
   sn_trcobc_dta(7) = 'amm7skagbdy_trc' ,    -1 , 'DIC'     ,   .true.     , .true. , 'yearly'  , ''       , ''       ,   ''
   sn_trcobc_dta(8) = 'amm7skagbdy_trc' ,    -1 , 'bioalk'     ,   .true.     , .true. , 'yearly'  , ''       , ''       ,   ''
   sn_trcobc_dta(28) = 'amm7skagbdy_trc' ,    -1     , 'diatoms_c' ,   .true.     , .true. , 'yearly'  , ''       , ''       ,   ''
   sn_trcobc_dta(29) = 'amm7skagbdy_trc' ,    -1     , 'diatoms_n' ,   .true.     , .true. , 'yearly'  , ''       , ''       ,   ''
   sn_trcobc_dta(30) = 'amm7skagbdy_trc' ,    -1     , 'diatoms_p' ,   .true.     , .true. , 'yearly'  , ''       , ''       ,   ''
   sn_trcobc_dta(31) = 'amm7skagbdy_trc' ,    -1     , 'diatoms_Chl' ,   .true.     , .true. , 'yearly'  , ''       , ''       ,   ''
   sn_trcobc_dta(32) = 'amm7skagbdy_trc' ,    -1     , 'diatoms_s' ,   .true.     , .true. , 'yearly'  , ''       , ''       ,   ''
   sn_trcobc_dta(52) = 'amm7skagbdy_trc' ,    -1     , 'calcite_c' ,   .true.     , .true. , 'yearly'  , ''       , ''       ,   ''
   sn_trcobc_dta(33) = 'amm7skagbdy_trc' ,    -1     , 'nanophytoplankton_c' ,   .true.     , .true. , 'yearly'  , ''       , ''       ,   ''
   sn_trcobc_dta(34) = 'amm7skagbdy_trc' ,    -1     , 'nanophytoplankton_n' ,   .true.     , .true. , 'yearly'  , ''       , ''       ,   ''
   sn_trcobc_dta(35) = 'amm7skagbdy_trc' ,    -1     , 'nanophytoplankton_p' ,   .true.     , .true. , 'yearly'  , ''       , ''       ,   ''
   sn_trcobc_dta(36) = 'amm7skagbdy_trc' ,    -1     , 'nanophytoplankton_Chl' ,   .true.     , .true. , 'yearly'  , ''       , ''       ,   ''
   sn_trcobc_dta(37) = 'amm7skagbdy_trc' ,    -1     , 'picophytoplankton_c' ,   .true.     , .true. , 'yearly'  , ''       , ''       ,   ''
   sn_trcobc_dta(38) = 'amm7skagbdy_trc' ,    -1     , 'picophytoplankton_n' ,   .true.     , .true. , 'yearly'  , ''       , ''       ,   ''
   sn_trcobc_dta(39) = 'amm7skagbdy_trc' ,    -1     , 'picophytoplankton_p' ,   .true.     , .true. , 'yearly'  , ''       , ''       ,   ''
   sn_trcobc_dta(40) = 'amm7skagbdy_trc' ,    -1     , 'picophytoplankton_Chl' ,   .true.     , .true. , 'yearly'  , ''       , ''       ,   ''
   sn_trcobc_dta(41) = 'amm7skagbdy_trc' ,    -1     , 'microphytoplankton_c' ,   .true.     , .true. , 'yearly'  , ''       , ''       ,   ''
   sn_trcobc_dta(42) = 'amm7skagbdy_trc' ,    -1     , 'microphytoplankton_n' ,   .true.     , .true. , 'yearly'  , ''       , ''       ,   ''
   sn_trcobc_dta(43) = 'amm7skagbdy_trc' ,    -1     , 'microphytoplankton_p' ,   .true.     , .true. , 'yearly'  , ''       , ''       ,   ''
   sn_trcobc_dta(44) = 'amm7skagbdy_trc' ,    -1     , 'microphytoplankton_Chl' ,   .true.     , .true. , 'yearly'  , ''       , ''       ,   ''
   sn_trcobc_dta(14) = 'amm7skagbdy_trc' ,    -1     , 'small_poc' ,   .true.     , .true. , 'yearly'  , ''       , ''       ,   ''
   sn_trcobc_dta(15) = 'amm7skagbdy_trc' ,    -1     , 'small_pon' ,   .true.     , .true. , 'yearly'  , ''       , ''       ,   ''
   sn_trcobc_dta(16) = 'amm7skagbdy_trc' ,    -1     , 'small_pop' ,   .true.     , .true. , 'yearly'  , ''       , ''       ,   ''
   sn_trcobc_dta(17) = 'amm7skagbdy_trc' ,    -1     , 'medium_poc' ,   .true.     , .true. , 'yearly'  , ''       , ''       ,   ''
   sn_trcobc_dta(18) = 'amm7skagbdy_trc' ,    -1     , 'medium_pon' ,   .true.     , .true. , 'yearly'  , ''       , ''       ,   ''
   sn_trcobc_dta(19) = 'amm7skagbdy_trc' ,    -1     , 'medium_pop' ,   .true.     , .true. , 'yearly'  , ''       , ''       ,   ''
   sn_trcobc_dta(20) = 'amm7skagbdy_trc' ,    -1     , 'medium_pos' ,   .true.     , .true. , 'yearly'  , ''       , ''       ,   ''
   sn_trcobc_dta(21) = 'amm7skagbdy_trc' ,    -1     , 'large_poc' ,   .true.     , .true. , 'yearly'  , ''       , ''       ,   ''
   sn_trcobc_dta(22) = 'amm7skagbdy_trc' ,    -1     , 'large_pon' ,   .true.     , .true. , 'yearly'  , ''       , ''       ,   ''
   sn_trcobc_dta(23) = 'amm7skagbdy_trc' ,    -1     , 'large_pop' ,   .true.     , .true. , 'yearly'  , ''       , ''       ,   ''
   sn_trcobc_dta(24) = 'amm7skagbdy_trc' ,    -1     , 'large_pos' ,   .true.     , .true. , 'yearly'  , ''       , ''       ,   ''
   rn_trofac(2) = 1
   rn_trofac(3) = 1
   rn_trofac(5) = 1
!   rn_trofac(6) = 1
   rn_trofac(7) = 1
   rn_trofac(8) = 1
   rn_trofac(28) = 1
   rn_trofac(29) = 1
   rn_trofac(30) = 1
   rn_trofac(31) = 1
   rn_trofac(32) = 1
   rn_trofac(52) = 1
   rn_trofac(33) = 1
   rn_trofac(34) = 1
   rn_trofac(35) = 1
   rn_trofac(36) = 1
   rn_trofac(37) = 1
   rn_trofac(38) = 1
   rn_trofac(39) = 1
   rn_trofac(40) = 1
   rn_trofac(41) = 1
   rn_trofac(42) = 1
   rn_trofac(43) = 1
   rn_trofac(44) = 1
   rn_trofac(14) = 1
   rn_trofac(15) = 1
   rn_trofac(16) = 1
   rn_trofac(17) = 1
   rn_trofac(18) = 1
   rn_trofac(19) = 1
   rn_trofac(20) = 1
   rn_trofac(21) = 1
   rn_trofac(22) = 1
   rn_trofac(23) = 1
   rn_trofac(24) = 1
   cn_dir_sbc        =  './'      !  root directory for the location of SURFACE data files
   cn_dir_cbc        =  './'      !  root directory for the location of COASTAL data files
   cn_dir_obc        =  '../../INPUTS/LBC/BGC/'      !  root directory for the location of OPEN data files
/
!----------------------------------------------------------------------
&namtrc_bdy       !   Setup of tracer boundary conditions
!-----------------------------------------------------------------------
   cn_trc_dflt     =  'neumann','neumann'   !  OBC applied by default to all tracers
   cn_trc          =  'frs','frs'   !  Boundary conditions appled to the active tracers (see namtrc)
   nn_trcdmp_bdy   = 0,0     !  Use damping timescales defined in nambdy of namelist
                           !  = 0 NO damping of tracers at open boudaries
                           !  = 1 Only for tracers forced with external data
                           !  = 2 Damping applied to all tracers   
   nb_trc_jpk_bdy  = -1,-1  ! number of levels in the bdy data (set < 0 if consistent with planned run)

/
